[TITLE]


[JUNCTIONS]
;ID              	Elev        	Demand      	Pattern         
 ND-01-003       	2807.06     	0           	                	;
 ND-01-004       	2796.752    	0           	                	;
 ND-01-005       	2796.752    	0           	                	;
 ND-01-006       	2796.752    	0           	                	;
 ND-01-007       	2796.825    	0           	                	;
 ND-01-008       	2796.825    	0           	                	;
 ND-01-009       	2796.928    	0           	                	;
 ND-01-010       	2797.283    	0           	                	;
 ND-01-011       	2798.905    	0           	                	;
 ND-01-012       	2798.881    	0           	                	;
 ND-01-013       	2798.857    	0           	                	;
 ND-01-014       	2798.891    	0           	                	;
 ND-01-015       	2798.85     	0           	                	;
 ND-01-016       	2796.606    	0           	                	;
 ND-01-017       	2796.664    	0           	                	;
 ND-01-018       	2798.885    	0           	                	;
 ND-01-019       	2798.883    	0           	                	;
 ND-01-020       	2798.843    	0           	                	;
 ND-01-021       	2798.875    	0           	                	;
 ND-02-006       	2796.61     	0           	                	;
 ND-02-007       	2796.61     	0           	                	;
 ND-02-008       	2796.61     	0           	                	;
 ND-02-009       	2796.752    	0           	                	;
 ND-02-010       	2796.752    	0           	                	;
 ND-02-011       	2796.752    	0           	                	;
 ND-02-012       	2797.6      	0           	                	;
 ND-02-013       	2798.876    	0           	                	;
 ND-02-015       	2798.876    	0           	                	;
 ND-02-016       	2798.876    	0           	                	;
 ND-02-017       	2798.876    	0           	                	;
 ND-02-018       	2796.656    	0           	                	;
 ND-02-019       	2796.656    	0           	                	;
 ND-02-020       	2798.876    	0           	                	;
 ND-02-021       	2798.876    	0           	                	;
 ND-02-022       	2798.876    	0           	                	;
 ND-02-023       	2798.876    	0           	                	;
 ND-02-024       	2798.876    	0           	                	;
 1               	2796.752    	0           	                	;
 2               	2798.876    	0           	                	;
 3               	2798.876    	0           	                	;
 4               	2798.876    	0           	                	;
 5               	2798.876    	0           	                	;
 6               	2798.876    	0           	                	;
 7               	2798.876    	0           	                	;
 8               	2798.076    	0           	                	;
 9               	2796.97     	0           	                	;
 11              	2798.876    	0           	                	;
 12              	2798.876    	0           	                	;
 13              	2798.876    	0           	                	;
 15              	2798.076    	0           	                	;
 16              	2796.97     	0           	                	;
 18              	2798.876    	0           	                	;
 19              	2798.876    	0           	                	;
 20              	2798.876    	0           	                	;
 21              	2798.876    	0           	                	;
 22              	2798.876    	0           	                	;
 23              	2798.076    	0           	                	;
 24              	2796.97     	0           	                	;
 26              	2798.876    	0           	                	;
 27              	2798.876    	0           	                	;
 28              	2798.876    	0           	                	;
 29              	2798.076    	0           	                	;
 30              	2796.97     	0           	                	;
 32              	2798.76     	0           	                	;
 33              	2798.876    	0           	                	;
 34              	2798.876    	0           	                	;
 35              	2798.876    	0           	                	;
 36              	2798.876    	0           	                	;
 37              	2798.076    	0           	                	;
 38              	2796.97     	0           	                	;
 39              	2798.876    	0           	                	;
 40              	2798.876    	0           	                	;
 41              	2798.876    	0           	                	;
 42              	2798.076    	0           	                	;
 43              	2796.97     	0           	                	;
 47              	2798.876    	0           	                	;
 48              	2798.876    	0           	                	;
 49              	2798.876    	0           	                	;
 50              	2798.876    	0           	                	;
 51              	2798.076    	0           	                	;
 52              	2798.876    	0           	                	;
 53              	2798.876    	0           	                	;
 54              	2798.876    	0           	                	;
 55              	2798.076    	0           	                	;
 56              	2796.97     	0           	                	;
 59              	2796.97     	0           	                	;
 61              	2798.875    	0           	                	;
 62              	2798.875    	0           	                	;
 63              	2798.856    	0           	                	;
 64              	2798.875    	0           	                	;
 65              	2798.856    	0           	                	;
 66              	2798.875    	0           	                	;
 67              	2798.876    	0           	                	;
 68              	2798.875    	0           	                	;
 69              	2798.875    	0           	                	;
 70              	2798.076    	0           	                	;
 71              	2797.076    	0           	                	;
 72              	2798.875    	0           	                	;
 73              	2798.875    	0           	                	;
 74              	2798.875    	0           	                	;
 75              	2798.875    	0           	                	;
 76              	2798.076    	0           	                	;
 78              	2797.076    	0           	                	;
 79              	2798.875    	0           	                	;
 80              	2798.875    	0           	                	;
 81              	2798.875    	0           	                	;
 82              	2798.875    	0           	                	;
 83              	2798.076    	0           	                	;
 84              	2797.076    	0           	                	;
 86              	2798.876    	0           	                	;
 87              	2798.876    	0           	                	;
 88              	2798.876    	0           	                	;
 89              	2798.076    	0           	                	;
 90              	2797.076    	0           	                	;
 92              	2798.875    	0           	                	;
 93              	2798.876    	0           	                	;
 94              	2798.875    	0           	                	;
 95              	2798.875    	0           	                	;
 96              	2798.076    	0           	                	;
 97              	2797.076    	0           	                	;
 99              	2798.875    	0           	                	;
 100             	2798.875    	0           	                	;
 101             	2798.875    	0           	                	;
 102             	2798.875    	0           	                	;
 103             	2798.076    	0           	                	;
 104             	2797.076    	0           	                	;
 106             	2798.875    	0           	                	;
 107             	2798.875    	0           	                	;
 108             	2798.875    	0           	                	;
 109             	2798.875    	0           	                	;
 110             	2798.076    	0           	                	;
 111             	2797.076    	0           	                	;
 113             	2798.876    	0           	                	;
 114             	2798.876    	0           	                	;
 115             	2798.876    	0           	                	;
 116             	2798.076    	0           	                	;
 117             	2797.076    	0           	                	;
 119             	2798.875    	0           	                	;
 120             	2798.876    	0           	                	;
 121             	2798.875    	0           	                	;
 122             	2798.875    	0           	                	;
 123             	2798.076    	0           	                	;
 124             	2797.076    	0           	                	;
 126             	2798.875    	0           	                	;
 127             	2798.875    	0           	                	;
 128             	2798.875    	0           	                	;
 129             	2798.875    	0           	                	;
 130             	2797.076    	0           	                	;
 131             	2797.076    	0           	                	;
 133             	2798.875    	0           	                	;
 134             	2798.875    	0           	                	;
 135             	2798.875    	0           	                	;
 136             	2798.875    	0           	                	;
 137             	2797.076    	0           	                	;
 138             	2797.076    	0           	                	;
 140             	2798.875    	0           	                	;
 141             	2798.875    	0           	                	;
 142             	2798.875    	0           	                	;
 143             	2797.076    	0           	                	;
 144             	2797.076    	0           	                	;
 146             	2798.856    	0           	                	;
 147             	2798.856    	0           	                	;
 148             	2798.875    	0           	                	;
 149             	2798.875    	0           	                	;
 150             	2797.076    	0           	                	;
 151             	2797.076    	0           	                	;
 153             	2798.875    	0           	                	;
 154             	2798.875    	0           	                	;
 155             	2798.875    	0           	                	;
 156             	2798.875    	0           	                	;
 157             	2797.076    	0           	                	;
 158             	2797.076    	0           	                	;
 160             	2798.875    	0           	                	;
 161             	2798.875    	0           	                	;
 162             	2798.875    	0           	                	;
 163             	2798.875    	0           	                	;
 164             	2797.076    	0           	                	;
 165             	2797.076    	0           	                	;
 167             	2798.875    	0           	                	;
 168             	2798.875    	0           	                	;
 169             	2798.875    	0           	                	;
 170             	2797.076    	0           	                	;
 171             	2797.076    	0           	                	;
 173             	2797.076    	0           	                	;
 174             	2797.076    	0           	                	;
 175             	2797.076    	0           	                	;
 176             	2797.076    	0           	                	;
 177             	2797.076    	0           	                	;
 178             	2797.076    	0           	                	;
 179             	2797.076    	0           	                	;
 180             	2797.076    	0           	                	;
 182             	2797.076    	0           	                	;
 183             	2797.076    	0           	                	;
 184             	2797.076    	0           	                	;
 185             	2797.076    	0           	                	;
 188             	2797.076    	0           	                	;
 189             	2797.076    	0           	                	;
 190             	2797.076    	0           	                	;
 191             	2797.076    	0           	                	;
 192             	2797.076    	0           	                	;
 193             	2797.076    	0           	                	;
 194             	2797.076    	0           	                	;
 195             	2797.076    	0           	                	;
 196             	2797.076    	0           	                	;
 197             	2797.076    	0           	                	;
 198             	2797.076    	0           	                	;
 199             	2797.076    	0           	                	;
 200             	2797.076    	0           	                	;
 201             	2797.076    	0           	                	;
 202             	2797.076    	0           	                	;
 203             	2797.076    	0           	                	;
 204             	2797.076    	0           	                	;
 205             	2797.076    	0           	                	;
 206             	2797.076    	0           	                	;
 207             	2797.076    	0           	                	;
 214             	2797.076    	0           	                	;
 215             	2797.076    	0           	                	;
 216             	2797.076    	0           	                	;
 217             	2797.076    	0           	                	;
 218             	2797.076    	0           	                	;
 219             	2797.076    	0           	                	;
 220             	2797.076    	0           	                	;
 221             	2797.076    	0           	                	;
 222             	2797.076    	0           	                	;
 223             	2797.076    	0           	                	;
 224             	2797.076    	0           	                	;
 225             	2797.076    	0           	                	;
 226             	2797.076    	0           	                	;
 227             	2797.076    	0           	                	;
 228             	2797.076    	0           	                	;
 229             	2797.076    	0           	                	;
 238             	2797.076    	0           	                	;
 239             	2797.076    	0           	                	;
 240             	2797.076    	0           	                	;
 241             	2797.076    	0           	                	;
 242             	2797.076    	0           	                	;
 243             	2797.076    	0           	                	;
 244             	2797.076    	0           	                	;
 245             	2797.076    	0           	                	;
 246             	2797.076    	0           	                	;
 247             	2797.076    	0           	                	;
 248             	2797.076    	0           	                	;
 249             	2797.076    	0           	                	;
 250             	2797.076    	0           	                	;
 251             	2797.076    	0           	                	;
 252             	2797.076    	0           	                	;
 253             	2797.076    	0           	                	;
 77              	2807.706    	0           	                	;
 85              	2807.706    	0           	                	;
 46              	2791.335    	0           	                	;
 91              	2791.335    	0           	                	;
 98              	2791.335    	0           	                	;
 105             	2791.335    	0           	                	;
 112             	2791.335    	0           	                	;
 118             	2791.335    	0           	                	;
 125             	2791.335    	0           	                	;
 132             	2791.335    	0           	                	;
 139             	2791.335    	0           	                	;
 145             	2797.497    	0           	                	;
 152             	2791.53     	0           	                	;
 159             	2791.53     	0           	                	;
 236             	2798.876    	0           	                	;
 237             	2798.881    	0           	                	;
 254             	2796.61     	0           	                	;
 255             	2796.61     	0           	                	;
 10              	0           	0           	                	;
 14              	0           	0           	                	;

[RESERVOIRS]
;ID              	Head        	Pattern         
 FN_02           	2800.47     	                	;
 FN_01           	2800.47     	                	;
 FN_04           	2800.47     	                	;
 FN_03           	2800.47     	                	;
 FN_06           	2800.47     	                	;
 FN_05           	2800.47     	                	;
 FN_08           	2800.47     	                	;
 FN_07           	2800.47     	                	;
 FV_01           	2800.47     	                	;
 FV_02           	2800.47     	                	;
 FV_05           	2800.47     	                	;
 FV_09           	2800.47     	                	;
 FV_06           	2800.47     	                	;
 FV_07           	2800.47     	                	;
 FV_11           	2800.47     	                	;
 FV_10           	2800.47     	                	;
 FV_08           	2800.47     	                	;
 FV_12           	2800.47     	                	;
 FV_03           	2800.47     	                	;
 FV_04           	2800.47     	                	;
 FV_13           	2800.47     	                	;
 FV_14           	2800.47     	                	;
 FV_15           	2800.47     	                	;
 FV_16           	2800.47     	                	;
 CDC             	2790.244    	                	;

[TANKS]
;ID              	Elevation   	InitLevel   	MinLevel    	MaxLevel    	Diameter    	MinVol      	VolCurve
 TAF_01          	2810.09     	5           	0           	5           	30          	0           	                	;
 TAF_02          	2810.09     	5           	0           	5           	30          	0           	                	;

[PIPES]
;ID              	Node1           	Node2           	Length      	Diameter    	Roughness   	MinorLoss   	Status
 PL-01-003-004   	ND-01-003       	ND-01-004       	17.42       	1800        	0.12        	0.75        	Open  	;
 PL-01-004-005   	ND-01-004       	ND-01-005       	65.93       	1800        	0.12        	0           	Open  	;
 PL-01-005-006   	ND-01-005       	ND-01-006       	7.78        	1353        	0.046       	0           	Open  	;
 PL-01-008-009   	ND-01-008       	ND-01-009       	4.375       	1353        	0.046       	0.4         	Open  	;
 PL-01-009-010   	ND-01-009       	ND-01-010       	1.821       	1353        	0.046       	0.42        	Open  	;
 PL-01-010-011   	ND-01-010       	ND-01-011       	4           	1353        	0.046       	0.42        	Open  	;
 PL-01-011-012   	ND-01-011       	ND-01-012       	1.673       	1353        	0.046       	0           	Open  	;
 PL-01-013-014   	ND-01-013       	ND-01-014       	2.95        	1353        	0.046       	0           	Open  	;
 PL-01-014-015   	ND-01-014       	ND-01-015       	13.154      	1353        	0.046       	0.5         	Open  	;
 PL-01-015-016   	ND-01-015       	ND-01-016       	5.17        	1353        	0.046       	0.42        	Open  	;
 PL-01-016-017   	ND-01-016       	ND-01-017       	8.565       	1353        	0.046       	0.5         	Open  	;
 PL-01-017-018   	ND-01-017       	ND-01-018       	5.25        	1353        	0.046       	0.42        	Open  	;
 PL-01-018-019   	ND-01-018       	ND-01-019       	3.395       	1353        	0.046       	0.08        	Open  	;
 PL-01-020-021   	ND-01-020       	ND-01-021       	3           	1353        	0.046       	0.75        	Open  	;
 PL-02-005-006   	ND-01-005       	ND-02-006       	4           	1200        	0.046       	1.3         	Open  	;
 PL-02-006-007   	ND-02-006       	ND-02-007       	3.61        	1200        	0.046       	0.75        	Open  	;
 PL-02-007-008   	ND-02-007       	ND-02-008       	8.77        	1200        	0.046       	0.9         	Open  	;
 PL-02-010-011   	ND-02-010       	ND-02-011       	2.357       	1353        	0.046       	0.4         	Open  	;
 PL-02-011-012   	ND-02-011       	ND-02-012       	3.142       	1353        	0.046       	0.42        	Open  	;
 PL-02-012-013   	ND-02-012       	ND-02-013       	2.948       	1353        	0.046       	0.42        	Open  	;
 PL-02-015-016   	ND-02-015       	ND-02-016       	7.663       	1353        	0.046       	0.08        	Open  	;
 PL-02-016-017   	ND-02-016       	ND-02-017       	2.88        	1353        	0.046       	0.42        	Open  	;
 PL-02-017-018   	ND-02-017       	ND-02-018       	4.86        	1353        	0.046       	0.42        	Open  	;
 PL-02-018-019   	ND-02-018       	ND-02-019       	8.54        	1353        	0.046       	0.42        	Open  	;
 PL-02-019-020   	ND-02-019       	ND-02-020       	4.8         	1353        	0.046       	0.42        	Open  	;
 PL-02-020-021   	ND-02-020       	ND-02-021       	4.89        	1353        	0.046       	0.08        	Open  	;
 PL-02-021-022   	ND-02-021       	ND-02-022       	4.66        	1353        	0.046       	0           	Open  	;
 PL-02-022-023   	ND-02-022       	ND-02-023       	2.88        	1353        	0.046       	0.98        	Open  	;
 PL-02-023-024   	ND-02-023       	ND-02-024       	3           	1353        	0.046       	0.75        	Open  	;
 1               	1               	ND-02-009       	1.204       	1200        	0.046       	0.08        	Open  	;
 2               	ND-02-008       	1               	1.2         	1200        	0.046       	0.4         	Open  	;
 3               	ND-02-013       	2               	2.231       	1353        	0.046       	0           	Open  	;
 4               	2               	3               	2.74        	1353        	0.046       	1.3         	Open  	;
 6               	4               	5               	1.468       	1353        	0.046       	0.08        	Open  	;
 7               	5               	6               	7.218       	1353        	0.046       	0.08        	Open  	;
 8               	6               	7               	2.18        	1353        	0.046       	1.8         	Open  	;
 10              	8               	9               	1.11        	1295        	0.046       	1.8         	Open  	;
 11              	9               	FN_02           	1.89        	1295        	0.046       	5.67        	Open  	;
 13              	6               	11              	2.3         	1353        	0.046       	0.98        	Open  	;
 14              	11              	12              	18.94       	1353        	0.046       	0.08        	Open  	;
 15              	12              	13              	2.1         	1353        	0.046       	0.75        	Open  	;
 18              	15              	16              	1.11        	1295        	0.046       	1.8         	Open  	;
 19              	16              	FN_01           	1.89        	1295        	0.046       	5.67        	Open  	;
 22              	ND-02-015       	18              	2.74        	1353        	0.046       	1.3         	Open  	;
 23              	19              	20              	1.468       	1353        	0.046       	0.08        	Open  	;
 24              	20              	21              	7.218       	1353        	0.046       	0.08        	Open  	;
 25              	21              	22              	2.18        	1353        	0.046       	1.8         	Open  	;
 27              	23              	24              	1.1         	1295        	0.046       	1.8         	Open  	;
 28              	24              	FN_04           	1.89        	1295        	0.046       	5.67        	Open  	;
 30              	21              	26              	2.3         	1353        	0.046       	0.98        	Open  	;
 31              	26              	27              	18.94       	1353        	0.046       	0.08        	Open  	;
 32              	27              	28              	2.1         	1353        	0.046       	0.75        	Open  	;
 33              	29              	30              	1.1         	1295        	0.046       	1.8         	Open  	;
 38              	ND-02-022       	32              	2.74        	1353        	0.046       	1.3         	Open  	;
 40              	34              	35              	7.218       	1353        	0.046       	0.08        	Open  	;
 41              	35              	36              	2.18        	1353        	0.046       	1.8         	Open  	;
 42              	37              	38              	1.1         	1295        	0.046       	1.8         	Open  	;
 43              	38              	FN_06           	1.89        	1295        	0.046       	5.67        	Open  	;
 44              	35              	39              	2.3         	1353        	0.046       	0.98        	Open  	;
 45              	39              	40              	18.94       	1353        	0.046       	0.08        	Open  	;
 46              	40              	41              	2.1         	1353        	0.046       	0.75        	Open  	;
 47              	42              	43              	1.1         	1295        	0.046       	1.8         	Open  	;
 48              	43              	FN_05           	1.89        	1295        	0.046       	5.67        	Open  	;
 49              	33              	34              	1.468       	1353        	0.046       	0.08        	Open  	;
 51              	47              	48              	1.468       	1353        	0.046       	0.08        	Open  	;
 52              	48              	49              	7.218       	1353        	0.046       	0.08        	Open  	;
 53              	49              	50              	2.18        	1353        	0.046       	1.8         	Open  	;
 54              	51              	59              	1.1         	1295        	0.046       	1.8         	Open  	;
 55              	59              	FN_08           	1.89        	1295        	0.046       	5.67        	Open  	;
 56              	49              	52              	2.3         	1353        	0.046       	0.98        	Open  	;
 57              	52              	53              	18.94       	1353        	0.046       	0.08        	Open  	;
 58              	53              	54              	2.1         	1353        	0.046       	0.75        	Open  	;
 59              	55              	56              	1.11        	1295        	0.046       	1.8         	Open  	;
 60              	56              	FN_07           	1.89        	1295        	0.046       	5.67        	Open  	;
 64              	ND-01-006       	ND-01-007       	0.844       	1353        	0.046       	0.4         	Open  	;AMPLIACION
 66              	ND-01-012       	62              	2.74        	1353        	0.046       	1.3         	Open  	;
 67              	ND-01-014       	61              	2.74        	1353        	0.046       	1.3         	Open  	;
 68              	ND-01-019       	63              	7.162       	1353        	0.046       	0           	Open  	;
 69              	63              	ND-01-020       	8.062       	1353        	0.046       	0.98        	Open  	;
 70              	63              	64              	2.74        	1353        	0.046       	1.3         	Open  	;
 71              	ND-01-021       	65              	3.202       	1353        	0.046       	0.75        	Open  	;
 72              	66              	67              	1.468       	1353        	0.046       	0.08        	Open  	;
 73              	67              	68              	7.22        	1353        	0.046       	0.08        	Open  	;
 74              	68              	69              	2.18        	1353        	0.046       	1.8         	Open  	;
 75              	70              	71              	1           	861.9       	0.046       	0           	Open  	;
 78              	72              	73              	18.94       	1353        	0.046       	0.08        	Open  	;
 79              	73              	74              	2.2         	1353        	0.046       	0           	Open  	;
 80              	74              	75              	2.18        	1353        	0.046       	1.8         	Open  	;
 84              	74              	79              	2.3         	1353        	0.046       	0.98        	Open  	;
 85              	79              	80              	18.94       	1353        	0.046       	0.08        	Open  	;
 86              	80              	81              	2.2         	1353        	0.046       	0           	Open  	;
 87              	81              	82              	2.18        	1353        	0.046       	1.8         	Open  	;
 89              	76              	78              	1           	861.9       	0.046       	0           	Open  	;
 90              	83              	84              	1           	861.9       	0.046       	0           	Open  	;
 92              	81              	86              	2.3         	1353        	0.046       	0.98        	Open  	;
 93              	86              	87              	18.94       	1353        	0.046       	0.08        	Open  	;
 94              	87              	88              	2.1         	1353        	0.046       	0.75        	Open  	;
 99              	92              	93              	1.468       	1353        	0.046       	0.08        	Open  	;
 101             	94              	95              	2.18        	1353        	0.046       	1.8         	Open  	;
 103             	96              	97              	1           	861.9       	0.046       	0           	Open  	;